# generated using pymatgen
data_Li2O
_symmetry_space_group_name_H-M   'P 1'
_cell_length_a   4.65884171
_cell_length_b   4.65884171
_cell_length_c   4.65884171
_cell_angle_alpha   90.00000000
_cell_angle_beta   90.00000000
_cell_angle_gamma   90.00000000
_symmetry_Int_Tables_number   1
_chemical_formula_structural   Li2O
_chemical_formula_sum   'Li8 O4'
_cell_volume   101.119255769
_cell_formula_units_Z   4
loop_
 _symmetry_equiv_pos_site_id
 _symmetry_equiv_pos_as_xyz
  1  'x, y, z'
loop_
 _atom_site_type_symbol
 _atom_site_label
 _atom_site_symmetry_multiplicity
 _atom_site_fract_x
 _atom_site_fract_y
 _atom_site_fract_z
 _atom_site_occupancy
  Li  Li1  1  0.250000  0.250000  0.250000  1
  Li  Li2  1  0.750000  0.750000  0.750000  1
  Li  Li3  1  0.250000  0.750000  0.750000  1
  Li  Li4  1  0.750000  0.250000  0.250000  1
  Li  Li5  1  0.750000  0.250000  0.750000  1
  Li  Li6  1  0.250000  0.750000  0.250000  1
  Li  Li7  1  0.750000  0.750000  0.250000  1
  Li  Li8  1  0.250000  0.250000  0.750000  1
  O  O9  1  0.000000  0.000000  0.000000  1
  O  O10  1  0.000000  0.500000  0.500000  1
  O  O11  1  0.500000  0.000000  0.500000  1
  O  O12  1  0.500000  0.500000  0.000000  1
